<additional>
    <tlLogic id="intersectionCenter" type="static" programID="1" offset="0">
        <phase duration="30" state="GGGrrr"/>
        <phase duration="5" state="yyyrrr"/>
        <phase duration="30" state="rrrGGG"/>
        <phase duration="5" state="rrryyy"/>
    </tlLogic>
</additional>
