<?xml version="1.0" encoding="UTF-8"?>

<!-- generated on 2025-03-15 11:03:47 by Eclipse SUMO netconvert Version v1_22_0+0828-b8c034a1b39
<netconvertConfiguration xmlns:xsi="http://www.w3.org/2001/XMLSchema-instance" xsi:noNamespaceSchemaLocation="http://sumo.dlr.de/xsd/netconvertConfiguration.xsd">

    <input>
        <node-files value="simple.nod.xml"/>
        <edge-files value="simple.edg.xml"/>
    </input>

    <output>
        <output-file value="simple.net.xml"/>
    </output>

</netconvertConfiguration>
-->

<net version="1.20" junctionCornerDetail="5" limitTurnSpeed="5.50" xmlns:xsi="http://www.w3.org/2001/XMLSchema-instance" xsi:noNamespaceSchemaLocation="http://sumo.dlr.de/xsd/net_file.xsd">

    <location netOffset="0.00,250.00" convBoundary="0.00,0.00,500.00,500.00" origBoundary="0.00,-250.00,500.00,250.00" projParameter="!"/>

    <edge id=":A_0" function="internal">
        <lane id=":A_0_0" index="0" speed="3.90" length="2.58" shape="12.45,248.87 12.02,249.43 11.88,250.00 12.02,250.57 12.45,251.13"/>
        <lane id=":A_0_1" index="1" speed="6.08" length="7.74" shape="10.18,246.61 8.91,248.30 8.49,250.00 8.91,251.70 10.18,253.39"/>
        <lane id=":A_0_2" index="2" speed="7.66" length="12.90" shape="7.92,244.34 5.80,247.17 5.09,250.00 5.80,252.83 7.92,255.66"/>
    </edge>
    <edge id=":B_0" function="internal">
        <lane id=":B_0_0" index="0" speed="3.90" length="2.58" shape="487.55,251.13 487.98,250.57 488.12,250.00 487.98,249.43 487.55,248.87"/>
        <lane id=":B_0_1" index="1" speed="6.08" length="7.74" shape="489.82,253.39 491.09,251.70 491.51,250.00 491.09,248.30 489.82,246.61"/>
        <lane id=":B_0_2" index="2" speed="7.66" length="12.90" shape="492.08,255.66 494.20,252.83 494.91,250.00 494.20,247.17 492.08,244.34"/>
    </edge>
    <edge id=":C_0" function="internal">
        <lane id=":C_0_0" index="0" speed="3.90" length="2.58" shape="248.87,487.55 249.43,487.98 250.00,488.12 250.57,487.98 251.13,487.55"/>
        <lane id=":C_0_1" index="1" speed="6.08" length="7.74" shape="246.61,489.82 248.30,491.09 250.00,491.51 251.70,491.09 253.39,489.82"/>
        <lane id=":C_0_2" index="2" speed="7.66" length="12.90" shape="244.34,492.08 247.17,494.20 250.00,494.91 252.83,494.20 255.66,492.08"/>
    </edge>
    <edge id=":D_0" function="internal">
        <lane id=":D_0_0" index="0" speed="3.90" length="2.58" shape="251.13,12.45 250.57,12.02 250.00,11.88 249.43,12.02 248.87,12.45"/>
        <lane id=":D_0_1" index="1" speed="6.08" length="7.74" shape="253.39,10.18 251.70,8.91 250.00,8.49 248.30,8.91 246.61,10.18"/>
        <lane id=":D_0_2" index="2" speed="7.66" length="12.90" shape="255.66,7.92 252.83,5.80 250.00,5.09 247.17,5.80 244.34,7.92"/>
    </edge>

    <edge id="road1" from="A" to="C" priority="-1">
        <lane id="road1_0" index="0" speed="20.00" length="334.35" shape="12.45,251.13 248.87,487.55"/>
        <lane id="road1_1" index="1" speed="20.00" length="334.35" shape="10.18,253.39 246.61,489.82"/>
        <lane id="road1_2" index="2" speed="20.00" length="334.35" shape="7.92,255.66 244.34,492.08"/>
    </edge>
    <edge id="road2" from="C" to="B" priority="-1">
        <lane id="road2_0" index="0" speed="20.00" length="334.35" shape="251.13,487.55 487.55,251.13"/>
        <lane id="road2_1" index="1" speed="20.00" length="334.35" shape="253.39,489.82 489.82,253.39"/>
        <lane id="road2_2" index="2" speed="20.00" length="334.35" shape="255.66,492.08 492.08,255.66"/>
    </edge>
    <edge id="road3" from="B" to="D" priority="-1">
        <lane id="road3_0" index="0" speed="15.00" length="334.35" shape="487.55,248.87 251.13,12.45"/>
        <lane id="road3_1" index="1" speed="15.00" length="334.35" shape="489.82,246.61 253.39,10.18"/>
        <lane id="road3_2" index="2" speed="15.00" length="334.35" shape="492.08,244.34 255.66,7.92"/>
    </edge>
    <edge id="road4" from="D" to="A" priority="-1">
        <lane id="road4_0" index="0" speed="15.00" length="334.35" shape="248.87,12.45 12.45,248.87"/>
        <lane id="road4_1" index="1" speed="15.00" length="334.35" shape="246.61,10.18 10.18,246.61"/>
        <lane id="road4_2" index="2" speed="15.00" length="334.35" shape="244.34,7.92 7.92,244.34"/>
    </edge>

    <tlLogic id="C" type="static" programID="0" offset="0">
        <phase duration="80" state="GGG"/>
        <phase duration="5"  state="yyy"/>
        <phase duration="5"  state="rrr"/>
    </tlLogic>
    <tlLogic id="D" type="static" programID="0" offset="0">
        <phase duration="82" state="GGG"/>
        <phase duration="3"  state="yyy"/>
        <phase duration="5"  state="rrr"/>
    </tlLogic>

    <junction id="A" type="priority" x="0.00" y="250.00" incLanes="road4_0 road4_1 road4_2" intLanes=":A_0_0 :A_0_1 :A_0_2" shape="6.79,256.79 13.58,250.00 6.79,243.21 4.90,245.47 3.77,247.74 3.39,250.00 3.77,252.26 4.90,254.53">
        <request index="0" response="000" foes="000" cont="0"/>
        <request index="1" response="000" foes="000" cont="0"/>
        <request index="2" response="000" foes="000" cont="0"/>
    </junction>
    <junction id="B" type="priority" x="500.00" y="250.00" incLanes="road2_0 road2_1 road2_2" intLanes=":B_0_0 :B_0_1 :B_0_2" shape="493.21,243.21 486.42,250.00 493.21,256.79 495.10,254.53 496.23,252.26 496.61,250.00 496.23,247.74 495.10,245.47">
        <request index="0" response="000" foes="000" cont="0"/>
        <request index="1" response="000" foes="000" cont="0"/>
        <request index="2" response="000" foes="000" cont="0"/>
    </junction>
    <junction id="C" type="traffic_light" x="250.00" y="500.00" incLanes="road1_0 road1_1 road1_2" intLanes=":C_0_0 :C_0_1 :C_0_2" shape="256.79,493.21 250.00,486.42 243.21,493.21 245.47,495.10 247.74,496.23 250.00,496.61 252.26,496.23 254.53,495.10">
        <request index="0" response="000" foes="000" cont="0"/>
        <request index="1" response="000" foes="000" cont="0"/>
        <request index="2" response="000" foes="000" cont="0"/>
    </junction>
    <junction id="D" type="traffic_light" x="250.00" y="0.00" incLanes="road3_0 road3_1 road3_2" intLanes=":D_0_0 :D_0_1 :D_0_2" shape="250.00,13.58 256.79,6.79 254.53,4.90 252.26,3.77 250.00,3.39 247.74,3.77 245.47,4.90 243.21,6.79">
        <request index="0" response="000" foes="000" cont="0"/>
        <request index="1" response="000" foes="000" cont="0"/>
        <request index="2" response="000" foes="000" cont="0"/>
    </junction>

    <connection from="road1" to="road2" fromLane="0" toLane="0" via=":C_0_0" tl="C" linkIndex="0" dir="r" state="O"/>
    <connection from="road1" to="road2" fromLane="1" toLane="1" via=":C_0_1" tl="C" linkIndex="1" dir="r" state="O"/>
    <connection from="road1" to="road2" fromLane="2" toLane="2" via=":C_0_2" tl="C" linkIndex="2" dir="r" state="O"/>
    <connection from="road2" to="road3" fromLane="0" toLane="0" via=":B_0_0" dir="r" state="M"/>
    <connection from="road2" to="road3" fromLane="1" toLane="1" via=":B_0_1" dir="r" state="M"/>
    <connection from="road2" to="road3" fromLane="2" toLane="2" via=":B_0_2" dir="r" state="M"/>
    <connection from="road3" to="road4" fromLane="0" toLane="0" via=":D_0_0" tl="D" linkIndex="0" dir="r" state="O"/>
    <connection from="road3" to="road4" fromLane="1" toLane="1" via=":D_0_1" tl="D" linkIndex="1" dir="r" state="O"/>
    <connection from="road3" to="road4" fromLane="2" toLane="2" via=":D_0_2" tl="D" linkIndex="2" dir="r" state="O"/>
    <connection from="road4" to="road1" fromLane="0" toLane="0" via=":A_0_0" dir="r" state="M"/>
    <connection from="road4" to="road1" fromLane="1" toLane="1" via=":A_0_1" dir="r" state="M"/>
    <connection from="road4" to="road1" fromLane="2" toLane="2" via=":A_0_2" dir="r" state="M"/>

    <connection from=":A_0" to="road1" fromLane="0" toLane="0" dir="r" state="M"/>
    <connection from=":A_0" to="road1" fromLane="1" toLane="1" dir="r" state="M"/>
    <connection from=":A_0" to="road1" fromLane="2" toLane="2" dir="r" state="M"/>
    <connection from=":B_0" to="road3" fromLane="0" toLane="0" dir="r" state="M"/>
    <connection from=":B_0" to="road3" fromLane="1" toLane="1" dir="r" state="M"/>
    <connection from=":B_0" to="road3" fromLane="2" toLane="2" dir="r" state="M"/>
    <connection from=":C_0" to="road2" fromLane="0" toLane="0" dir="r" state="M"/>
    <connection from=":C_0" to="road2" fromLane="1" toLane="1" dir="r" state="M"/>
    <connection from=":C_0" to="road2" fromLane="2" toLane="2" dir="r" state="M"/>
    <connection from=":D_0" to="road4" fromLane="0" toLane="0" dir="r" state="M"/>
    <connection from=":D_0" to="road4" fromLane="1" toLane="1" dir="r" state="M"/>
    <connection from=":D_0" to="road4" fromLane="2" toLane="2" dir="r" state="M"/>

</net>
